/*--------------------------------*- C++ -*----------------------------------*\
  =========                 |
  \\      /  F ield         | OpenFOAM: The Open Source CFD Toolbox
   \\    /   O peration     | Website:  https://openfoam.org
    \\  /    A nd           | Version:  7
     \\/     M anipulation  |
\*---------------------------------------------------------------------------*/
FoamFile
{
    version     2.0;
    format      ascii;
    class       volScalarField;
    object      T;
}
// * * * * * * * * * * * * * * * * * * * * * * * * * * * * * * * * * * * * * //

dimensions      [0 0 0 1 0 0 0];

internalField   uniform 300;

boundaryField
{

    body
    {
        type            fixedValue;
        value           uniform 310;
    }

    inlet1
    {
        type            fixedValue;
        value           uniform 273;
    }
    inlet2
    {
        type            fixedValue;
        value           uniform 400;
    }
    outlet1
    {
        type            zeroGradient;
    }

}

// ************************************************************************* //
// *********************	tensor-inf-2024		******************** //
// *********************	pttensor.com		******************** //
